Circuit: * C:\Users\levyg\Documents\MEGA\Semestre atual\Graduação\Sistemas de Controle II\Projeto\LTSpice\Controlador no limite\CL_PD.asc

WARNING: Less than two connections to node AC.  This node is used by V4.
Early termination of direct N-R iteration.
Direct Newton iteration failed to find .op point.  (Use ".option noopiter" to skip.)
Starting Gmin stepping
Gmin = 10
Gmin = 1.07374
vernier = 0.5
vernier = 0.25
vernier = 0.125
vernier = 0.0625
Gmin = 1.08884
vernier = 0.03125
vernier = 0.015625
Gmin = 1.03122
vernier = 0.0078125
vernier = 0.00390625
Gmin = 1.01823
vernier = 0.00520833
vernier = 0.00260417
Gmin = 1.01162
vernier = 0.00347222
vernier = 0.00173611
vernier = 0.00231481
vernier = 0.00115741
Gmin = 1.00877
vernier = 0.00154321
vernier = 0.000771604
Gmin = 1.00673
vernier = 0.00102881
vernier = 0.000514403
vernier = 0.00068587
Gmin = 1.00553
vernier = 0.000514403
vernier = 0.00068587
vernier = 0.000514402
Gmin = 1.00475
Gmin = 0
Gmin stepping failed

Starting source stepping with srcstepmethod=0
Source Step = 3.0303%
Source Step = 33.3333%
Source Step = 63.6364%
Source Step = 93.9394%
Source stepping succeeded in finding the operating point.


Date: Wed Oct 23 20:47:35 2019
Total elapsed time: 4.337 seconds.

tnom = 27
temp = 27
method = modified trap
totiter = 41968
traniter = 36136
tranpoints = 16620
accept = 11266
rejected = 5354
matrix size = 42
fillins = 105
solver = Normal
Thread vector: 108.1/61.9[4] 17.1/13.6[4] 22.0/8.1[4] 0.7/5.2[1]  2592/500
Matrix Compiler1:     479 opcodes  12.5/[2.4]/3.7
Matrix Compiler2: 6.92 KB object code size  1.6/2.0/[1.0]

