Circuit: * C:\Users\levyg\Documents\MEGA\Semestre atual\Graduação\Sistemas de Controle II\Projeto\LTSpice\State feedback\Draft1.asc

Direct Newton iteration failed to find .op point.  (Use ".option noopiter" to skip.)
Starting Gmin stepping
Gmin = 10
Gmin = 1.07374
vernier = 0.5
vernier = 0.25
vernier = 0.125
vernier = 0.0625
Gmin = 1.08884
vernier = 0.03125
vernier = 0.015625
Gmin = 1.03122
vernier = 0.0078125
vernier = 0.0104167
vernier = 0.00520833
Gmin = 1.01988
vernier = 0.00260417
vernier = 0.00347222
Gmin = 1.01305
vernier = 0.00173611
vernier = 0.00231481
vernier = 0.00115741
Gmin = 1.01085
vernier = 0.00154321
vernier = 0.000771604
Gmin = 1.00871
vernier = 0.00102881
vernier = 0.000514403
Gmin = 1.00715
vernier = 0.00068587
vernier = 0.000514403
Gmin = 1.0059
vernier = 0.00068587
vernier = 0.000514402
Gmin = 0
Gmin stepping failed

Starting source stepping with srcstepmethod=0
Source Step = 3.0303%
Source Step = 33.3333%
Source Step = 63.6364%
Source Step = 93.9394%
Source stepping succeeded in finding the operating point.


Date: Mon Oct 28 19:53:36 2019
Total elapsed time: 0.891 seconds.

tnom = 27
temp = 27
method = modified trap
totiter = 9086
traniter = 2726
tranpoints = 1217
accept = 1153
rejected = 64
matrix size = 24
fillins = 24
solver = Normal
Thread vector: 21.3/7.2[2] 3.4/2.1[2] 3.5/7.6[1] 0.2/0.9[1]  2592/500
Matrix Compiler1: 2.77 KB object code size  0.8/0.6/[0.3]
Matrix Compiler2: 3.13 KB object code size  0.5/0.5/[0.4]

