Circuit: * C:\Users\levyg\Documents\MEGA\Semestre atual\Graduação\Sistemas de Controle II\Projeto\LTSpice\State feedback\Plant_K.asc

Early termination of direct N-R iteration.
Direct Newton iteration failed to find .op point.  (Use ".option noopiter" to skip.)
Starting Gmin stepping
Gmin = 10
Gmin = 1.07374
vernier = 0.5
vernier = 0.25
vernier = 0.125
vernier = 0.0625
Gmin = 1.08884
vernier = 0.03125
vernier = 0.015625
Gmin = 1.03122
vernier = 0.0078125
vernier = 0.00390625
Gmin = 1.01823
vernier = 0.00520833
vernier = 0.00260417
Gmin = 1.01162
vernier = 0.00347222
vernier = 0.00173611
vernier = 0.00231481
vernier = 0.00115741
Gmin = 1.00877
vernier = 0.00154321
vernier = 0.000771604
Gmin = 1.00673
vernier = 0.00102881
vernier = 0.000514403
vernier = 0.00068587
Gmin = 1.00553
vernier = 0.000514403
vernier = 0.00068587
vernier = 0.000514402
Gmin = 1.00475
Gmin = 0
Gmin stepping failed

Starting source stepping with srcstepmethod=0
Source Step = 3.0303%
Source Step = 33.3333%
Source Step = 63.6364%
Source Step = 93.9394%
Source stepping succeeded in finding the operating point.


Date: Sun Oct 27 15:23:47 2019
Total elapsed time: 1.802 seconds.

tnom = 27
temp = 27
method = modified trap
totiter = 8348
traniter = 2516
tranpoints = 1252
accept = 1215
rejected = 37
matrix size = 45
fillins = 110
solver = Normal
Thread vector: 85.1/41.7[4] 13.4/10.7[3] 19.3/10.7[4] 0.2/7.3[1]  2592/500
Matrix Compiler1: 9.37 KB object code size  5.8/3.5/[1.2]
Matrix Compiler2: 7.71 KB object code size  1.4/1.7/[0.4]

